dynaflow/src/test/resources/SmallBusBranch/dynaflow-outputs/contingency1-outputIIDM.xml
<?xml version="1.0" encoding="UTF-8"?>
<iidm:network xmlns:iidm="http://www.powsybl.org/schema/iidm/1_4" id="urn:uuid:2399cbd2-9a39-11e0-aa80-0800200c9a66_EU" caseDate="2030-01-02T09:00:00+00:00" forecastDistance="7993438" sourceFormat="CGMES">
    <iidm:property name="CGMESModelDetail" value="bus-branch"/>
    <iidm:substation id="_047c929a-c766-11e1-8775-005056c00008" name="Godrics Hollow" country="GB" geographicalTags="_0472a781-c766-11e1-8775-005056c00008">
        <iidm:voltageLevel id="_0460f448-c766-11e1-8775-005056c00008" name="GOD132KV" nominalV="132" topologyKind="BUS_BREAKER">
            <iidm:busBreakerTopology>
                <iidm:bus id="_045a1670-c766-11e1-8775-005056c00008" name="Jay" v="99.905017930938826" angle="-76.140206846957625"/>
            </iidm:busBreakerTopology>
            <iidm:load id="_047abdd7-c766-11e1-8775-005056c00008" name="Jay LD" loadType="UNDEFINED" p0="14" q0="8" bus="_045a1670-c766-11e1-8775-005056c00008" connectableBus="_045a1670-c766-11e1-8775-005056c00008" p="11.76304351026495" q="5.985164618362278"/>
        </iidm:voltageLevel>
    </iidm:substation>
    <iidm:substation id="_04819ba1-c766-11e1-8775-005056c00008" name="Nurmengard" country="GB" geographicalTags="_0472a781-c766-11e1-8775-005056c00008">
        <iidm:voltageLevel id="_0476c639-c766-11e1-8775-005056c00008" name="NUR132KV" nominalV="132" topologyKind="BUS_BREAKER">
            <iidm:busBreakerTopology>
                <iidm:bus id="_04483c26-c766-11e1-8775-005056c00008" name="Madison" v="111.82744365733416" angle="-73.814727360096839"/>
            </iidm:busBreakerTopology>
            <iidm:load id="_045b00d5-c766-11e1-8775-005056c00008" name="Madison LD" loadType="UNDEFINED" p0="62" q0="13" bus="_04483c26-c766-11e1-8775-005056c00008" connectableBus="_04483c26-c766-11e1-8775-005056c00008" p="59.300047043466755" q="12.070231498435579"/>
            <iidm:load id="_04689566-c766-11e1-8775-005056c00008" name="Madison NegG LD" loadType="UNDEFINED" p0="9" q0="0" bus="_04483c26-c766-11e1-8775-005056c00008" connectableBus="_04483c26-c766-11e1-8775-005056c00008" p="8.6080713450193667" q="0"/>
        </iidm:voltageLevel>
    </iidm:substation>
    <iidm:substation id="_04542302-c766-11e1-8775-005056c00008" name="Gringotts" country="GB" geographicalTags="_0472a781-c766-11e1-8775-005056c00008">
        <iidm:voltageLevel id="_0450eeb4-c766-11e1-8775-005056c00008" name="GRI132KV" nominalV="132" topologyKind="BUS_BREAKER">
            <iidm:busBreakerTopology>
                <iidm:bus id="_04549837-c766-11e1-8775-005056c00008" name="Torrey" v="126.06000000283255" angle="-15.489137414509708"/>
            </iidm:busBreakerTopology>
            <iidm:generator id="_046c3ee7-c766-11e1-8775-005056c00008" name="Torrey SM" energySource="THERMAL" minP="20" maxP="80" ratedS="100" voltageRegulatorOn="true" targetP="48" targetV="126.06" targetQ="0" bus="_04549837-c766-11e1-8775-005056c00008" connectableBus="_04549837-c766-11e1-8775-005056c00008" p="-54.340984149361894" q="-8.0416051810435807">
                <iidm:property name="CGMES.GeneratingUnit" value="_b97aee41-3115-4cfd-9071-b52fb44d0b66"/>
                <iidm:property name="CGMES.RegulatingControl" value="_5005c073-28d1-4a7d-b257-649dec43ec73"/>
                <iidm:property name="CGMES.normalPF" value="0.0"/>
                <iidm:minMaxReactiveLimits minQ="-30" maxQ="85"/>
            </iidm:generator>
            <iidm:load id="_044afb44-c766-11e1-8775-005056c00008" name="Torrey LD" loadType="UNDEFINED" p0="113" q0="32" bus="_04549837-c766-11e1-8775-005056c00008" connectableBus="_04549837-c766-11e1-8775-005056c00008" p="113.00000000380864" q="32.000000001797588"/>
        </iidm:voltageLevel>
    </iidm:substation>
    <iidm:substation id="_045de701-c766-11e1-8775-005056c00008" name="Needlehole" country="GB" geographicalTags="_0472a781-c766-11e1-8775-005056c00008">
        <iidm:voltageLevel id="_04808a33-c766-11e1-8775-005056c00008" name="NEE132KV" nominalV="132" topologyKind="BUS_BREAKER">
            <iidm:busBreakerTopology>
                <iidm:bus id="_047ba835-c766-11e1-8775-005056c00008" name="Darrah" v="117.52042144828899" angle="-8.9009550235159605"/>
            </iidm:busBreakerTopology>
            <iidm:load id="_04481515-c766-11e1-8775-005056c00008" name="Darrah LD" loadType="UNDEFINED" p0="68" q0="36" bus="_047ba835-c766-11e1-8775-005056c00008" connectableBus="_047ba835-c766-11e1-8775-005056c00008" p="66.803554436108328" q="34.950516444706551"/>
        </iidm:voltageLevel>
    </iidm:substation>
    <iidm:substation id="_0472f5a8-c766-11e1-8775-005056c00008" name="Dale" country="GB" geographicalTags="_0472a781-c766-11e1-8775-005056c00008">
        <iidm:voltageLevel id="_0467d214-c766-11e1-8775-005056c00008" name="DAL132KV" nominalV="132" topologyKind="BUS_BREAKER">
            <iidm:busBreakerTopology>
                <iidm:bus id="_04845ac5-c766-11e1-8775-005056c00008" name="Smythe" v="130.47007807599709" angle="9.3884011357970607"/>
            </iidm:busBreakerTopology>
            <iidm:load id="_044c0cb3-c766-11e1-8775-005056c00008" name="Smythe LD" loadType="UNDEFINED" p0="5" q0="3" bus="_04845ac5-c766-11e1-8775-005056c00008" connectableBus="_04845ac5-c766-11e1-8775-005056c00008" p="4.9982706587905561" q="2.9982708581729529"/>
        </iidm:voltageLevel>
    </iidm:substation>
    <iidm:substation id="_047a48a3-c766-11e1-8775-005056c00008" name="Hogsmeade" country="GB" geographicalTags="_0472a781-c766-11e1-8775-005056c00008">
        <iidm:voltageLevel id="_047e675c-c766-11e1-8775-005056c00008" name="HOG132KV" nominalV="132" topologyKind="BUS_BREAKER">
            <iidm:busBreakerTopology>
                <iidm:bus id="_045b9d15-c766-11e1-8775-005056c00008" name="Sunnysde" v="125.88411525429728" angle="-15.530234755325715"/>
            </iidm:busBreakerTopology>
            <iidm:load id="_0450a093-c766-11e1-8775-005056c00008" name="Sunnysde LD" loadType="UNDEFINED" p0="84" q0="18" bus="_045b9d15-c766-11e1-8775-005056c00008" connectableBus="_045b9d15-c766-11e1-8775-005056c00008" p="83.987178429923119" q="17.995421100816433"/>
        </iidm:voltageLevel>
    </iidm:substation>
    <iidm:substation id="_046f4c23-c766-11e1-8775-005056c00008" name="Barad-dûr" country="GB" geographicalTags="_0472a781-c766-11e1-8775-005056c00008">
        <iidm:voltageLevel id="_047dcb11-c766-11e1-8775-005056c00008" name="BAR132KV" nominalV="132" topologyKind="BUS_BREAKER">
            <iidm:busBreakerTopology>
                <iidm:bus id="_0486f2d6-c766-11e1-8775-005056c00008" name="Bellefnt" v="115.83087851917665" angle="-12.571177763728805"/>
            </iidm:busBreakerTopology>
            <iidm:load id="_044b2251-c766-11e1-8775-005056c00008" name="Bellefnt LD" loadType="UNDEFINED" p0="68" q0="27" bus="_0486f2d6-c766-11e1-8775-005056c00008" connectableBus="_0486f2d6-c766-11e1-8775-005056c00008" p="66.001939415039431" q="25.690747351144527"/>
            <iidm:shunt id="_0449e9d5-c766-11e1-8775-005056c00008" name="Bellefnt SC" sectionCount="5" voltageRegulatorOn="true" targetV="126.40300000000001" targetDeadband="1" bus="_0486f2d6-c766-11e1-8775-005056c00008" connectableBus="_0486f2d6-c766-11e1-8775-005056c00008" q="-9.2441699763632119">
                <iidm:property name="CGMES.RegulatingControl" value="_6cc38790-c6a6-4309-99f4-a3258e24e785"/>
                <iidm:shuntLinearModel bPerSection="0.00013779999999999999" maximumSectionCount="10"/>
            </iidm:shunt>
        </iidm:voltageLevel>
    </iidm:substation>
    <iidm:substation id="_047a6fb6-c766-11e1-8775-005056c00008" name="Waymoot" country="GB" geographicalTags="_0472a781-c766-11e1-8775-005056c00008">
        <iidm:voltageLevel id="_04740714-c766-11e1-8775-005056c00008" name="WAY132KV" nominalV="132" topologyKind="BUS_BREAKER">
            <iidm:busBreakerTopology>
                <iidm:bus id="_04550d63-c766-11e1-8775-005056c00008" name="Fieldale" v="126.06519478236872" angle="-4.681662705477196"/>
            </iidm:busBreakerTopology>
            <iidm:load id="_04682035-c766-11e1-8775-005056c00008" name="Fieldale LD" loadType="UNDEFINED" p0="39" q0="30" bus="_04550d63-c766-11e1-8775-005056c00008" connectableBus="_04550d63-c766-11e1-8775-005056c00008" p="39.000609769860418" q="30.000781760305586"/>
            <iidm:shunt id="_045c6067-c766-11e1-8775-005056c00008" name="Fieldale SC" sectionCount="5" voltageRegulatorOn="true" targetV="126.066" targetDeadband="1" bus="_04550d63-c766-11e1-8775-005056c00008" connectableBus="_04550d63-c766-11e1-8775-005056c00008" q="-5.4669970674176991">
                <iidm:property name="CGMES.RegulatingControl" value="_2d222dd9-7306-4afd-baa5-fd303b0eeb40"/>
                <iidm:shuntLinearModel bPerSection="6.8800000000000005e-05" maximumSectionCount="10"/>
            </iidm:shunt>
        </iidm:voltageLevel>
    </iidm:substation>
    <iidm:substation id="_0488eea9-c766-11e1-8775-005056c00008" name="Upbourn" country="GB" geographicalTags="_0472a781-c766-11e1-8775-005056c00008">
        <iidm:voltageLevel id="_047147f4-c766-11e1-8775-005056c00008" name="UPB132KV" nominalV="132" topologyKind="BUS_BREAKER">
            <iidm:busBreakerTopology>
                <iidm:bus id="_04862f81-c766-11e1-8775-005056c00008" name="Muskngum1" v="138.59999100975705" angle="-2.2421530570888666"/>
            </iidm:busBreakerTopology>
            <iidm:generator id="_047f0391-c766-11e1-8775-005056c00008" name="Muskngum SM" energySource="THERMAL" minP="200" maxP="400" ratedS="500" voltageRegulatorOn="true" targetP="392" targetV="138.59999099999999" targetQ="0" bus="_04862f81-c766-11e1-8775-005056c00008" connectableBus="_04862f81-c766-11e1-8775-005056c00008" p="-400" q="-5.7298284212362205">
                <iidm:property name="CGMES.GeneratingUnit" value="_d9948603-709f-41dd-a0ff-2ebda091255a"/>
                <iidm:property name="CGMES.RegulatingControl" value="_23727856-fd9b-4124-a981-4e862148f3bb"/>
                <iidm:property name="CGMES.normalPF" value="0.0"/>
                <iidm:minMaxReactiveLimits minQ="-150" maxQ="450"/>
            </iidm:generator>
            <iidm:load id="_047e1936-c766-11e1-8775-005056c00008" name="Muskngum LD" loadType="UNDEFINED" p0="39" q0="18" bus="_04862f81-c766-11e1-8775-005056c00008" connectableBus="_04862f81-c766-11e1-8775-005056c00008" p="39.000000004118249" q="18.000000003167884"/>
        </iidm:voltageLevel>
        <iidm:voltageLevel id="_0463da78-c766-11e1-8775-005056c00008" name="UPB220KV" nominalV="220" topologyKind="BUS_BREAKER">
            <iidm:busBreakerTopology>
                <iidm:bus id="_0458ddf2-c766-11e1-8775-005056c00008" name="Muskngum2" v="221.09999999999997" angle="0"/>
            </iidm:busBreakerTopology>
            <iidm:generator id="_0458ddf1-c766-11e1-8775-005056c00008" name="Muskngum SM" energySource="THERMAL" minP="200" maxP="400" ratedS="500" voltageRegulatorOn="true" targetP="391" targetV="221.09999999999999" targetQ="0" bus="_0458ddf2-c766-11e1-8775-005056c00008" connectableBus="_0458ddf2-c766-11e1-8775-005056c00008" p="-400" q="-121.10242882208824">
                <iidm:property name="CGMES.GeneratingUnit" value="_5036c3a5-56f9-489c-9ecb-8c15aa7c70c5"/>
                <iidm:property name="CGMES.RegulatingControl" value="_12b01822-ca11-4cf8-a6b4-2f8ff805ca20"/>
                <iidm:property name="CGMES.normalPF" value="0.0"/>
                <iidm:minMaxReactiveLimits minQ="-150" maxQ="450"/>
            </iidm:generator>
        </iidm:voltageLevel>
        <iidm:twoWindingsTransformer id="_045cae83-c766-11e1-8775-005056c00008" name="65-66" r="0" x="6.4468800000000002" g="0" b="0" ratedU1="220" ratedU2="132" bus1="_0458ddf2-c766-11e1-8775-005056c00008" connectableBus1="_0458ddf2-c766-11e1-8775-005056c00008" voltageLevelId1="_0463da78-c766-11e1-8775-005056c00008" bus2="_04862f81-c766-11e1-8775-005056c00008" connectableBus2="_04862f81-c766-11e1-8775-005056c00008" voltageLevelId2="_047147f4-c766-11e1-8775-005056c00008" p1="119.33663009564617" q1="74.573220424092455" p2="-119.33663009564614" q2="-68.231449155583334">
            <iidm:ratioTapChanger lowTapPosition="1" tapPosition="1" loadTapChangingCapabilities="false">
                <iidm:step r="0" x="0" g="0" b="0" rho="1.0695187165775399"/>
                <iidm:step r="0" x="0" g="0" b="0" rho="1"/>
                <iidm:step r="0" x="0" g="0" b="0" rho="0.93896713615023475"/>
                <iidm:step r="0" x="0" g="0" b="0" rho="0.88495575221238942"/>
                <iidm:step r="0" x="0" g="0" b="0" rho="0.83682008368200833"/>
                <iidm:step r="0" x="0" g="0" b="0" rho="0.79365079365079361"/>
                <iidm:step r="0" x="0" g="0" b="0" rho="0.75471698113207553"/>
                <iidm:step r="0" x="0" g="0" b="0" rho="0.71942446043165464"/>
                <iidm:step r="0" x="0" g="0" b="0" rho="0.6872852233676976"/>
                <iidm:step r="0" x="0" g="0" b="0" rho="0.65789473684210531"/>
                <iidm:step r="0" x="0" g="0" b="0" rho="0.63091482649842268"/>
                <iidm:step r="0" x="0" g="0" b="0" rho="0.60606060606060608"/>
                <iidm:step r="0" x="0" g="0" b="0" rho="0.58309037900874627"/>
            </iidm:ratioTapChanger>
            <iidm:currentLimits1 permanentLimit="1312">
                <iidm:temporaryLimit name="_069c77f0-1cf0-491a-ae17-8f71e0c7cc0b" acceptableDuration="900" value="1508"/>
                <iidm:temporaryLimit name="_a7b7f7b8-4ee3-45f5-ba3e-edb3678e0866" acceptableDuration="60" value="1837"/>
            </iidm:currentLimits1>
            <iidm:currentLimits2 permanentLimit="2186">
                <iidm:temporaryLimit name="_85b581c6-1005-4dc0-a758-ad5cfa9b05c4" acceptableDuration="900" value="2514"/>
                <iidm:temporaryLimit name="_981fee8c-aaa5-4946-b2d2-292bb3a4e7df" acceptableDuration="60" value="3061"/>
            </iidm:currentLimits2>
        </iidm:twoWindingsTransformer>
    </iidm:substation>
    <iidm:substation id="_04773b6b-c766-11e1-8775-005056c00008" name="Fornost Erain" country="GB" geographicalTags="_0472a781-c766-11e1-8775-005056c00008">
        <iidm:voltageLevel id="_046b2d70-c766-11e1-8775-005056c00008" name="FOR132KV" nominalV="132" topologyKind="BUS_BREAKER">
            <iidm:busBreakerTopology>
                <iidm:bus id="_0474f17a-c766-11e1-8775-005056c00008" name="Adams" v="97.363615087649436" angle="-80.918091344517151"/>
            </iidm:busBreakerTopology>
            <iidm:load id="_0453d4e2-c766-11e1-8775-005056c00008" name="Adams LD" loadType="UNDEFINED" p0="18" q0="3" bus="_0474f17a-c766-11e1-8775-005056c00008" connectableBus="_0474f17a-c766-11e1-8775-005056c00008" p="14.550511344560149" q="2.1044123379088395"/>
        </iidm:voltageLevel>
    </iidm:substation>
    <iidm:substation id="_04887979-c766-11e1-8775-005056c00008" name="The Wall" country="GB" geographicalTags="_0472a781-c766-11e1-8775-005056c00008">
        <iidm:voltageLevel id="_0475b4c0-c766-11e1-8775-005056c00008" name="THE132KV" nominalV="132" topologyKind="BUS_BREAKER">
            <iidm:busBreakerTopology>
                <iidm:bus id="_04597a36-c766-11e1-8775-005056c00008" name="Claytor" v="133.31999200456107" angle="1.1394031586013413"/>
            </iidm:busBreakerTopology>
            <iidm:generator id="_046bf0c4-c766-11e1-8775-005056c00008" name="Claytor SM" energySource="THERMAL" minP="0" maxP="160" ratedS="200" voltageRegulatorOn="true" targetP="40" targetV="133.31999200000001" targetQ="0" bus="_04597a36-c766-11e1-8775-005056c00008" connectableBus="_04597a36-c766-11e1-8775-005056c00008" p="-52.681968298723781" q="-80.352682780410419">
                <iidm:property name="CGMES.GeneratingUnit" value="_e56da2eb-bb6a-4133-953c-40073c5bc5f4"/>
                <iidm:property name="CGMES.RegulatingControl" value="_d41be6b4-155e-4c8f-b46b-16b50c49f0f4"/>
                <iidm:property name="CGMES.normalPF" value="0.0"/>
                <iidm:minMaxReactiveLimits minQ="-60" maxQ="170"/>
            </iidm:generator>
            <iidm:load id="_048433b6-c766-11e1-8775-005056c00008" name="Claytor LD" loadType="UNDEFINED" p0="23" q0="16" bus="_04597a36-c766-11e1-8775-005056c00008" connectableBus="_04597a36-c766-11e1-8775-005056c00008" p="23.00000000118029" q="16.000000001368452"/>
        </iidm:voltageLevel>
    </iidm:substation>
    <iidm:substation id="_04795e41-c766-11e1-8775-005056c00008" name="Havens of the Falas" country="GB" geographicalTags="_0472a781-c766-11e1-8775-005056c00008">
        <iidm:voltageLevel id="_045d23b4-c766-11e1-8775-005056c00008" name="HAV132KV" nominalV="132" topologyKind="BUS_BREAKER">
            <iidm:busBreakerTopology>
                <iidm:bus id="_04725962-c766-11e1-8775-005056c00008" name="N.Newark" v="114.67438346518996" angle="-22.969827005101905"/>
            </iidm:busBreakerTopology>
            <iidm:load id="_0449e9d7-c766-11e1-8775-005056c00008" name="N.Newark LD" loadType="UNDEFINED" p0="53" q0="22" bus="_04725962-c766-11e1-8775-005056c00008" connectableBus="_04725962-c766-11e1-8775-005056c00008" p="50.782150595801042" q="20.487142108264564"/>
            <iidm:shunt id="_04684741-c766-11e1-8775-005056c00008" name="N.Newark SC" sectionCount="5" voltageRegulatorOn="true" targetV="130.32300000000001" targetDeadband="1" bus="_04725962-c766-11e1-8775-005056c00008" connectableBus="_04725962-c766-11e1-8775-005056c00008" q="-7.5482229640717016">
                <iidm:property name="CGMES.RegulatingControl" value="_eae61817-d3cb-488f-a1f3-13bc8e31431b"/>
                <iidm:shuntLinearModel bPerSection="0.0001148" maximumSectionCount="10"/>
            </iidm:shunt>
        </iidm:voltageLevel>
    </iidm:substation>
    <iidm:substation id="_047e404a-c766-11e1-8775-005056c00008" name="Minas Anor" country="GB" geographicalTags="_0472a781-c766-11e1-8775-005056c00008">
        <iidm:voltageLevel id="_048433b5-c766-11e1-8775-005056c00008" name="MNA132KV" nominalV="132" topologyKind="BUS_BREAKER">
            <iidm:busBreakerTopology>
                <iidm:bus id="_0472a783-c766-11e1-8775-005056c00008" name="Hillsbro" v="107.68447049732227" angle="-36.359167848577734"/>
            </iidm:busBreakerTopology>
            <iidm:load id="_0448d86a-c766-11e1-8775-005056c00008" name="Hillsbro NegG LD" loadType="UNDEFINED" p0="12" q0="0" bus="_0472a783-c766-11e1-8775-005056c00008" connectableBus="_0472a783-c766-11e1-8775-005056c00008" p="11.209422364908352" q="0"/>
        </iidm:voltageLevel>
    </iidm:substation>
    <iidm:substation id="_0449c2ca-c766-11e1-8775-005056c00008" name="Avallonë" country="GB" geographicalTags="_0472a781-c766-11e1-8775-005056c00008">
        <iidm:voltageLevel id="_045e8349-c766-11e1-8775-005056c00008" name="AVA132KV" nominalV="132" topologyKind="BUS_BREAKER">
            <iidm:busBreakerTopology>
                <iidm:bus id="_046bf0cb-c766-11e1-8775-005056c00008" name="S.Kenton" v="86.367016928223151" angle="-59.502882722128362"/>
            </iidm:busBreakerTopology>
            <iidm:load id="_047dcb12-c766-11e1-8775-005056c00008" name="S.Kenton LD" loadType="UNDEFINED" p0="18" q0="7" bus="_046bf0cb-c766-11e1-8775-005056c00008" connectableBus="_046bf0cb-c766-11e1-8775-005056c00008" p="12.156403279838496" q="3.6390305085129895"/>
        </iidm:voltageLevel>
    </iidm:substation>
    <iidm:substation id="_0468bc71-c766-11e1-8775-005056c00008" name="Vale of Arryn" country="GB" geographicalTags="_0472a781-c766-11e1-8775-005056c00008">
        <iidm:voltageLevel id="_0484f70a-c766-11e1-8775-005056c00008" name="VLA132KV" nominalV="132" topologyKind="BUS_BREAKER">
            <iidm:busBreakerTopology>
                <iidm:bus id="_04689561-c766-11e1-8775-005056c00008" name="Hazard" v="129.33589856147555" angle="8.0493631432343999"/>
            </iidm:busBreakerTopology>
            <iidm:load id="_044afb49-c766-11e1-8775-005056c00008" name="Hazard LD" loadType="UNDEFINED" p0="21" q0="10" bus="_04689561-c766-11e1-8775-005056c00008" connectableBus="_04689561-c766-11e1-8775-005056c00008" p="20.988093373777509" q="9.9905520826992209"/>
        </iidm:voltageLevel>
        <iidm:voltageLevel id="_04555b88-c766-11e1-8775-005056c00008" name="VALE33KV" nominalV="33" topologyKind="BUS_BREAKER">
            <iidm:busBreakerTopology>
                <iidm:bus id="_04505279-c766-11e1-8775-005056c00008" name="Pinevlle" v="33.495000001052539" angle="8.6411386085332591"/>
            </iidm:busBreakerTopology>
            <iidm:generator id="_047fc6e6-c766-11e1-8775-005056c00008" name="Pinevlle SM" energySource="THERMAL" minP="0" maxP="40" ratedS="50" voltageRegulatorOn="true" targetP="4" targetV="33.494999999999997" targetQ="0" bus="_04505279-c766-11e1-8775-005056c00008" connectableBus="_04505279-c766-11e1-8775-005056c00008" p="-7.1704920746809453" q="-16.265938585708753">
                <iidm:property name="CGMES.GeneratingUnit" value="_9a6bdb3c-346d-4426-8127-5f6cbf0150b2"/>
                <iidm:property name="CGMES.RegulatingControl" value="_98f667da-02d1-4a31-b826-44314a1fbbfe"/>
                <iidm:property name="CGMES.normalPF" value="0.0"/>
                <iidm:minMaxReactiveLimits minQ="-15" maxQ="45"/>
            </iidm:generator>
        </iidm:voltageLevel>
        <iidm:twoWindingsTransformer id="_045e3525-c766-11e1-8775-005056c00008" name="86-87" r="0.30796918750000002" x="2.2585859312499998" g="0" b="-0.0040863184000000004" ratedU1="132" ratedU2="33" bus1="_04689561-c766-11e1-8775-005056c00008" connectableBus1="_04689561-c766-11e1-8775-005056c00008" voltageLevelId1="_0484f70a-c766-11e1-8775-005056c00008" bus2="_04505279-c766-11e1-8775-005056c00008" connectableBus2="_04505279-c766-11e1-8775-005056c00008" voltageLevelId2="_04555b88-c766-11e1-8775-005056c00008" p1="-7.0837499920026445" q1="-11.357600702897797" p2="7.1704920796898453" q2="16.265938584853217">
            <iidm:ratioTapChanger lowTapPosition="1" tapPosition="31" loadTapChangingCapabilities="false">
                <iidm:step r="-78.460970487743992" x="-78.460970487743992" g="364.27347129590328" b="364.27347129590328" rho="0.4641016"/>
                <iidm:step r="-76.770985444658564" x="-76.770985444658564" g="330.49609255595948" b="330.49609255595948" rho="0.48196488000000004"/>
                <iidm:step r="-75.017181047101431" x="-75.017181047101431" g="300.27508580410921" b="300.27508580410921" rho="0.49982816000000002"/>
                <iidm:step r="-73.199557295072623" x="-73.199557295072623" g="273.1281647135425" b="273.1281647135425" rho="0.51769144000000011"/>
                <iidm:step r="-71.318114188572153" x="-71.318114188572153" g="248.65210975826625" b="248.65210975826625" rho="0.53555472000000004"/>
                <iidm:step r="-69.372851727600008" x="-69.372851727600008" g="226.50770848984379" b="226.50770848984379" rho="0.55341799999999997"/>
                <iidm:step r="-67.363769912156158" x="-67.363769912156158" g="206.40793906293555" b="206.40793906293555" rho="0.57128128"/>
                <iidm:step r="-65.290868742240633" x="-65.290868742240633" g="188.10862264852744" b="188.10862264852744" rho="0.58914456000000004"/>
                <iidm:step r="-63.154148217853432" x="-63.154148217853432" g="171.40097232995538" b="171.40097232995538" rho="0.60700784000000008"/>
                <iidm:step r="-60.953608338994556" x="-60.953608338994556" g="156.10561116167679" b="156.10561116167679" rho="0.62487112"/>
                <iidm:step r="-58.689249105663997" x="-58.689249105663997" g="142.06773741726079" b="142.06773741726079" rho="0.64273440000000004"/>
                <iidm:step r="-56.361070517861769" x="-56.361070517861769" g="129.15319231405709" b="129.15319231405709" rho="0.66059767999999996"/>
                <iidm:step r="-53.969072575587838" x="-53.969072575587838" g="117.24524269951107" b="117.24524269951107" rho="0.67846096"/>
                <iidm:step r="-51.51325527884223" x="-51.51325527884223" g="106.24193390397649" b="106.24193390397649" rho="0.69632424000000004"/>
                <iidm:step r="-48.993618627624947" x="-48.993618627624947" g="96.053900138385018" b="96.053900138385018" rho="0.71418752000000008"/>
                <iidm:step r="-46.410162621936003" x="-46.410162621936003" g="86.602544237115268" b="86.602544237115268" rho="0.7320508"/>
                <iidm:step r="-43.762887261775354" x="-43.762887261775354" g="77.81851722275475" b="77.81851722275475" rho="0.74991407999999993"/>
                <iidm:step r="-41.051792547143037" x="-41.051792547143037" g="69.640442552852292" b="69.640442552852292" rho="0.76777735999999996"/>
                <iidm:step r="-38.276878478039045" x="-38.276878478039045" g="62.013841060226049" b="62.013841060226049" rho="0.78564064"/>
                <iidm:step r="-35.438145054463355" x="-35.438145054463355" g="54.890221299184191" b="54.890221299184191" rho="0.80350392000000004"/>
                <iidm:step r="-32.53559227641599" x="-32.53559227641599" g="48.2263068397802" b="48.2263068397802" rho="0.82136720000000008"/>
                <iidm:step r="-29.569220143896956" x="-29.569220143896956" g="41.983377444222199" b="41.983377444222199" rho="0.83923048"/>
                <iidm:step r="-26.53902865690624" x="-26.53902865690624" g="36.126705339843348" b="36.126705339843348" rho="0.85709376000000004"/>
                <iidm:step r="-23.445017815443848" x="-23.445017815443848" g="30.625071218648301" b="30.625071218648301" rho="0.87495704000000007"/>
                <iidm:step r="-20.287187619509762" x="-20.287187619509762" g="25.450347332714429" b="25.450347332714429" rho="0.89282032000000011"/>
                <iidm:step r="-17.06553806910399" x="-17.06553806910399" g="20.577137262099331" b="20.577137262099331" rho="0.91068360000000004"/>
                <iidm:step r="-13.780069164226571" x="-13.780069164226571" g="15.982463718828566" b="15.982463718828566" rho="0.92854687999999996"/>
                <iidm:step r="-10.430780904877434" x="-10.430780904877434" g="11.645497203453271" b="11.645497203453271" rho="0.94641016"/>
                <iidm:step r="-7.0176732910566368" x="-7.0176732910566368" g="7.5473195169912355" b="7.5473195169912355" rho="0.96427344000000004"/>
                <iidm:step r="-3.5407463227641656" x="-3.5407463227641656" g="3.6707171036300279" b="3.6707171036300279" rho="0.98213671999999985"/>
                <iidm:step r="0" x="0" g="0" b="0" rho="1"/>
                <iidm:step r="3.6045656772358381" x="3.6045656772358381" g="-3.4791571719583358" b="-3.4791571719583358" rho="1.01786328"/>
                <iidm:step r="7.272950708943382" x="7.272950708943382" g="-6.7798551833225922" b="-6.7798551833225922" rho="1.0357265600000001"/>
                <iidm:step r="11.005155095122543" x="11.005155095122543" g="-9.9140937064517427" b="-9.9140937064517427" rho="1.0535898399999999"/>
                <iidm:step r="14.801178835773431" x="14.801178835773431" g="-12.892880531259154" b="-12.892880531259154" rho="1.0714531199999999"/>
                <iidm:step r="18.661021930895984" x="18.661021930895984" g="-15.726328348801433" b="-15.726328348801433" rho="1.0893164"/>
                <iidm:step r="22.584684380490238" x="22.584684380490238" g="-18.423740693731116" b="-18.423740693731116" rho="1.10717968"/>
                <iidm:step r="26.572166184556178" x="26.572166184556178" g="-20.993688411566747" b="-20.993688411566747" rho="1.12504296"/>
                <iidm:step r="30.623467343093779" x="30.623467343093779" g="-23.444077826121855" b="-23.444077826121855" rho="1.1429062400000001"/>
                <iidm:step r="34.738587856103067" x="34.738587856103067" g="-25.782211620922489" b="-25.782211620922489" rho="1.1607695200000001"/>
                <iidm:step r="38.917527723583987" x="38.917527723583987" g="-28.014843311220961" b="-28.014843311220961" rho="1.1786327999999999"/>
                <iidm:step r="43.16028694553664" x="43.16028694553664" g="-30.148226066322692" b="-30.148226066322692" rho="1.19649608"/>
                <iidm:step r="47.466865521960955" x="47.466865521960955" g="-32.188156542116317" b="-32.188156542116317" rho="1.21435936"/>
                <iidm:step r="51.837263452856973" x="51.837263452856973" g="-34.140014298236885" b="-34.140014298236885" rho="1.23222264"/>
                <iidm:step r="56.271480738224653" x="56.271480738224653" g="-36.0087973009527" b="-36.0087973009527" rho="1.2500859200000001"/>
                <iidm:step r="60.769517378063973" x="60.769517378063973" g="-37.799153949786998" b="-37.799153949786998" rho="1.2679491999999999"/>
                <iidm:step r="65.331373372375026" x="65.331373372375026" g="-39.515412011505823" b="-39.515412011505823" rho="1.2858124799999999"/>
                <iidm:step r="69.957048721157761" x="69.957048721157761" g="-41.161604798123854" b="-41.161604798123854" rho="1.30367576"/>
                <iidm:step r="74.646543424412172" x="74.646543424412172" g="-42.741494884907091" b="-42.741494884907091" rho="1.32153904"/>
                <iidm:step r="79.399857482138245" x="79.399857482138245" g="-44.258595629064871" b="-44.258595629064871" rho="1.33940232"/>
                <iidm:step r="84.216990894335964" x="84.216990894335964" g="-45.716190719151165" b="-45.716190719151165" rho="1.3572655999999998"/>
                <iidm:step r="89.097943661005473" x="89.097943661005473" g="-47.11735195848069" b="-47.11735195848069" rho="1.3751288800000001"/>
                <iidm:step r="94.04271578214653" x="94.04271578214653" g="-48.464955462553469" b="-48.464955462553469" rho="1.3929921599999999"/>
                <iidm:step r="99.051307257759348" x="99.051307257759348" g="-49.761696430103783" b="-49.761696430103783" rho="1.41085544"/>
                <iidm:step r="104.12371808784383" x="104.12371808784383" g="-51.010102629540867" b="-51.010102629540867" rho="1.42871872"/>
                <iidm:step r="109.25994827240002" x="109.25994827240002" g="-52.212546726893493" b="-52.212546726893493" rho="1.446582"/>
                <iidm:step r="114.45999781142788" x="114.45999781142788" g="-53.371257567609966" b="-53.371257567609966" rho="1.4644452800000001"/>
                <iidm:step r="119.72386670492732" x="119.72386670492732" g="-54.488330512455207" b="-54.488330512455207" rho="1.4823085599999999"/>
                <iidm:step r="125.05155495289854" x="125.05155495289854" g="-55.565736917068101" b="-55.565736917068101" rho="1.5001718399999999"/>
                <iidm:step r="130.44306255534144" x="130.44306255534144" g="-56.605332835313817" b="-56.605332835313817" rho="1.51803512"/>
                <iidm:step r="135.89838951225599" x="135.89838951225599" g="-57.608867018227542" b="-57.608867018227542" rho="1.5358984"/>
            </iidm:ratioTapChanger>
            <iidm:currentLimits1 permanentLimit="2186">
                <iidm:temporaryLimit name="_580d3b53-5508-4d8d-97cc-4ea463e0cdb9" acceptableDuration="900" value="2514"/>
                <iidm:temporaryLimit name="_a867e68a-58d1-49cb-955f-bb8e59cf2a11" acceptableDuration="60" value="3061"/>
            </iidm:currentLimits1>
            <iidm:currentLimits2 permanentLimit="8747">
                <iidm:temporaryLimit name="_1a7f23f9-e2c0-46a6-a93c-687f2209e33d" acceptableDuration="900" value="10059"/>
                <iidm:temporaryLimit name="_257d56c1-d70a-4a96-b85c-d928ade03ad4" acceptableDuration="60" value="12246"/>
            </iidm:currentLimits2>
        </iidm:twoWindingsTransformer>
    </iidm:substation>
    <iidm:substation id="_045beb3a-c766-11e1-8775-005056c00008" name="Minas Tirith" country="GB" geographicalTags="_0472a781-c766-11e1-8775-005056c00008">
        <iidm:voltageLevel id="_048a9c58-c766-11e1-8775-005056c00008" name="MNT132KV" nominalV="132" topologyKind="BUS_BREAKER">
            <iidm:busBreakerTopology>
                <iidm:bus id="_04555b87-c766-11e1-8775-005056c00008" name="NwCarlsl" v="102.20235174449152" angle="-94.140719154993718"/>
            </iidm:busBreakerTopology>
            <iidm:load id="_0447ee05-c766-11e1-8775-005056c00008" name="NwCarlsl NegG LD" loadType="UNDEFINED" p0="9" q0="0" bus="_04555b87-c766-11e1-8775-005056c00008" connectableBus="_04555b87-c766-11e1-8775-005056c00008" p="7.8242831402377995" q="0"/>
            <iidm:load id="_047a48a8-c766-11e1-8775-005056c00008" name="NwCarlsl LD" loadType="UNDEFINED" p0="30" q0="12" bus="_04555b87-c766-11e1-8775-005056c00008" connectableBus="_04555b87-c766-11e1-8775-005056c00008" p="26.08094380079266" q="9.5027942679391355"/>
        </iidm:voltageLevel>
    </iidm:substation>
    <iidm:substation id="_047120e4-c766-11e1-8775-005056c00008" name="Bywater" country="GB" geographicalTags="_0472a781-c766-11e1-8775-005056c00008">
        <iidm:voltageLevel id="_046c65f4-c766-11e1-8775-005056c00008" name="BYW132KV" nominalV="132" topologyKind="BUS_BREAKER">
            <iidm:busBreakerTopology>
                <iidm:bus id="_046b7b91-c766-11e1-8775-005056c00008" name="Blaine" v="126.620353935352" angle="-3.6632099004043295"/>
            </iidm:busBreakerTopology>
            <iidm:load id="_044ecbd1-c766-11e1-8775-005056c00008" name="Blaine LD" loadType="UNDEFINED" p0="2" q0="1" bus="_046b7b91-c766-11e1-8775-005056c00008" connectableBus="_046b7b91-c766-11e1-8775-005056c00008" p="2.0000381389275868" q="1.00003178264168"/>
        </iidm:voltageLevel>
    </iidm:substation>
    <iidm:substation id="_0467f928-c766-11e1-8775-005056c00008" name="Tirion" country="GB" geographicalTags="_0472a781-c766-11e1-8775-005056c00008">
        <iidm:voltageLevel id="_048bd4da-c766-11e1-8775-005056c00008" name="TIR132KV" nominalV="132" topologyKind="BUS_BREAKER">
            <iidm:busBreakerTopology>
                <iidm:bus id="_04667284-c766-11e1-8775-005056c00008" name="Sundial" v="133.10985257516575" angle="1.8537735001136455"/>
            </iidm:busBreakerTopology>
            <iidm:load id="_046b7b95-c766-11e1-8775-005056c00008" name="Sundial LD" loadType="UNDEFINED" p0="15" q0="9" bus="_04667284-c766-11e1-8775-005056c00008" connectableBus="_04667284-c766-11e1-8775-005056c00008" p="14.990454464482045" q="8.9904564894529884"/>
        </iidm:voltageLevel>
    </iidm:substation>
    <iidm:substation id="_048badc8-c766-11e1-8775-005056c00008" name="White Harbor" country="GB" geographicalTags="_0472a781-c766-11e1-8775-005056c00008">
        <iidm:voltageLevel id="_0488c79a-c766-11e1-8775-005056c00008" name="WHI132KV" nominalV="132" topologyKind="BUS_BREAKER">
            <iidm:busBreakerTopology>
                <iidm:bus id="_044a8618-c766-11e1-8775-005056c00008" name="Riversde" v="98.444179650244863" angle="-98.974523594192831"/>
            </iidm:busBreakerTopology>
            <iidm:load id="_045645e2-c766-11e1-8775-005056c00008" name="Riversde LD" loadType="UNDEFINED" p0="51" q0="27" bus="_044a8618-c766-11e1-8775-005056c00008" connectableBus="_044a8618-c766-11e1-8775-005056c00008" p="41.914660918447346" q="19.469586706989912"/>
        </iidm:voltageLevel>
    </iidm:substation>
    <iidm:substation id="_045e8345-c766-11e1-8775-005056c00008" name="Nobottle" country="GB" geographicalTags="_0472a781-c766-11e1-8775-005056c00008">
        <iidm:voltageLevel id="_04773b6a-c766-11e1-8775-005056c00008" name="NOB132KV" nominalV="132" topologyKind="BUS_BREAKER">
            <iidm:busBreakerTopology>
                <iidm:bus id="_0461b794-c766-11e1-8775-005056c00008" name="Randolph" v="104.99867022565479" angle="-70.079655414265602"/>
            </iidm:busBreakerTopology>
            <iidm:load id="_04887973-c766-11e1-8775-005056c00008" name="Randolph LD" loadType="UNDEFINED" p0="10" q0="5" bus="_0461b794-c766-11e1-8775-005056c00008" connectableBus="_0461b794-c766-11e1-8775-005056c00008" p="9.0528726904344818" q="4.2359161952663396"/>
        </iidm:voltageLevel>
    </iidm:substation>
    <iidm:substation id="_0452c37a-c766-11e1-8775-005056c00008" name="Formenos" country="GB" geographicalTags="_0472a781-c766-11e1-8775-005056c00008">
        <iidm:voltageLevel id="_0478c204-c766-11e1-8775-005056c00008" name="FRM132KV" nominalV="132" topologyKind="BUS_BREAKER">
            <iidm:busBreakerTopology>
                <iidm:bus id="_0467f927-c766-11e1-8775-005056c00008" name="WNwPhil2" v="126.5250874446199" angle="-15.853943493590576"/>
            </iidm:busBreakerTopology>
            <iidm:load id="_0477627b-c766-11e1-8775-005056c00008" name="WNwPhil2 LD" loadType="UNDEFINED" p0="12" q0="3" bus="_0467f927-c766-11e1-8775-005056c00008" connectableBus="_0467f927-c766-11e1-8775-005056c00008" p="11.992382113337202" q="2.9968265522735038"/>
        </iidm:voltageLevel>
    </iidm:substation>
    <iidm:substation id="_046b0666-c766-11e1-8775-005056c00008" name="Vinyamar" country="GB" geographicalTags="_0472a781-c766-11e1-8775-005056c00008">
        <iidm:voltageLevel id="_04479fe8-c766-11e1-8775-005056c00008" name="VIN132KV" nominalV="132" topologyKind="BUS_BREAKER">
            <iidm:busBreakerTopology>
                <iidm:bus id="_044ef2e3-c766-11e1-8775-005056c00008" name="Cloverdl" v="126.73410581339147" angle="-2.9542276992874599"/>
            </iidm:busBreakerTopology>
            <iidm:load id="_0476781a-c766-11e1-8775-005056c00008" name="Cloverdl LD" loadType="UNDEFINED" p0="43" q0="16" bus="_044ef2e3-c766-11e1-8775-005056c00008" connectableBus="_044ef2e3-c766-11e1-8775-005056c00008" p="43.001131717670319" q="16.000701846572937"/>
        </iidm:voltageLevel>
    </iidm:substation>
    <iidm:substation id="_046dec9b-c766-11e1-8775-005056c00008" name="Aldburg" country="GB" geographicalTags="_0472a781-c766-11e1-8775-005056c00008">
        <iidm:voltageLevel id="_0483977a-c766-11e1-8775-005056c00008" name="ALD132KV" nominalV="132" topologyKind="BUS_BREAKER">
            <iidm:busBreakerTopology>
                <iidm:bus id="_046783f5-c766-11e1-8775-005056c00008" name="Hancock" v="128.11544299721317" angle="-1.5662610563165653"/>
            </iidm:busBreakerTopology>
            <iidm:load id="_046b0665-c766-11e1-8775-005056c00008" name="Hancock LD" loadType="UNDEFINED" p0="38" q0="25" bus="_046783f5-c766-11e1-8775-005056c00008" connectableBus="_046783f5-c766-11e1-8775-005056c00008" p="38.000417798574787" q="25.000458114151293"/>
        </iidm:voltageLevel>
    </iidm:substation>
    <iidm:substation id="_04865696-c766-11e1-8775-005056c00008" name="Scary" country="GB" geographicalTags="_0472a781-c766-11e1-8775-005056c00008">
        <iidm:voltageLevel id="_04544a15-c766-11e1-8775-005056c00008" name="SCA132KV" nominalV="132" topologyKind="BUS_BREAKER">
            <iidm:busBreakerTopology>
                <iidm:bus id="_047c4478-c766-11e1-8775-005056c00008" name="WMVernon" v="103.26745936707131" angle="-31.541818697125105"/>
            </iidm:busBreakerTopology>
            <iidm:load id="_044bbe92-c766-11e1-8775-005056c00008" name="WMVernon LD" loadType="UNDEFINED" p0="16" q0="8" bus="_047c4478-c766-11e1-8775-005056c00008" connectableBus="_047c4478-c766-11e1-8775-005056c00008" p="14.127845469389497" q="6.5015450443602605"/>
            <iidm:shunt id="_047825c8-c766-11e1-8775-005056c00008" name="WMVernon SC" sectionCount="5" voltageRegulatorOn="true" targetV="130.21199999999999" targetDeadband="1" bus="_047c4478-c766-11e1-8775-005056c00008" connectableBus="_047c4478-c766-11e1-8775-005056c00008" q="-6.121232526210461">
                <iidm:property name="CGMES.RegulatingControl" value="_2a6c1dcd-201b-4911-83b2-c16acc50a0f4"/>
                <iidm:shuntLinearModel bPerSection="0.0001148" maximumSectionCount="10"/>
            </iidm:shunt>
        </iidm:voltageLevel>
    </iidm:substation>
    <iidm:substation id="_046030f9-c766-11e1-8775-005056c00008" name="Winterfell" country="GB" geographicalTags="_0472a781-c766-11e1-8775-005056c00008">
        <iidm:voltageLevel id="_044f4102-c766-11e1-8775-005056c00008" name="WIN220KV" nominalV="220" topologyKind="BUS_BREAKER">
            <iidm:busBreakerTopology>
                <iidm:bus id="_047ba832-c766-11e1-8775-005056c00008" name="Breed" v="0" angle="0"/>
            </iidm:busBreakerTopology>
            <iidm:generator id="_045868c0-c766-11e1-8775-005056c00008" name="Breed SM" energySource="THERMAL" minP="300" maxP="600" ratedS="750" voltageRegulatorOn="true" targetP="450" targetV="230.99998500000001" targetQ="0" connectableBus="_047ba832-c766-11e1-8775-005056c00008" p="-0" q="-0">
                <iidm:property name="CGMES.GeneratingUnit" value="_f26d4eb3-ebdb-4025-8080-f856ce656b42"/>
                <iidm:property name="CGMES.RegulatingControl" value="_7566f2a7-61eb-42fe-a59a-8276257fdbc6"/>
                <iidm:property name="CGMES.normalPF" value="0.0"/>
                <iidm:minMaxReactiveLimits minQ="-225" maxQ="640"/>
            </iidm:generator>
        </iidm:voltageLevel>
    </iidm:substation>
    <iidm:substation id="_04703680-c766-11e1-8775-005056c00008" name="Brithombar" country="GB" geographicalTags="_0472a781-c766-11e1-8775-005056c00008">
        <iidm:voltageLevel id="_04542300-c766-11e1-8775-005056c00008" name="BRI132KV" nominalV="132" topologyKind="BUS_BREAKER">
            <iidm:busBreakerTopology>
                <iidm:bus id="_046a4314-c766-11e1-8775-005056c00008" name="Newcmrst" v="127.53176286426" angle="-15.574969392542796"/>
            </iidm:busBreakerTopology>
            <iidm:load id="_044d1e22-c766-11e1-8775-005056c00008" name="Newcmrst LD" loadType="UNDEFINED" p0="17" q0="8" bus="_046a4314-c766-11e1-8775-005056c00008" connectableBus="_046a4314-c766-11e1-8775-005056c00008" p="16.982910309546686" q="7.9866008131800639"/>
        </iidm:voltageLevel>
    </iidm:substation>
    <iidm:substation id="_0480b149-c766-11e1-8775-005056c00008" name="Nindamos" country="GB" geographicalTags="_0472a781-c766-11e1-8775-005056c00008">
        <iidm:voltageLevel id="_04728079-c766-11e1-8775-005056c00008" name="NIN132KV" nominalV="132" topologyKind="BUS_BREAKER">
            <iidm:busBreakerTopology>
                <iidm:bus id="_04689567-c766-11e1-8775-005056c00008" name="TannrsCk1" v="138.60009543815451" angle="-58.407916424423711"/>
            </iidm:busBreakerTopology>
            <iidm:generator id="_045ab2b0-c766-11e1-8775-005056c00008" name="TannrsCk SM" energySource="THERMAL" minP="100" maxP="400" ratedS="500" voltageRegulatorOn="true" targetP="220" targetV="138.59999099999999" targetQ="0" bus="_04689567-c766-11e1-8775-005056c00008" connectableBus="_04689567-c766-11e1-8775-005056c00008" p="-251.70492074680948" q="-282.86952304151271">
                <iidm:property name="CGMES.GeneratingUnit" value="_56975783-9739-40fc-8ec1-e1de8cb06c9a"/>
                <iidm:property name="CGMES.RegulatingControl" value="_b8449cd9-5a17-497e-bf04-70f728b0f9f2"/>
                <iidm:property name="CGMES.normalPF" value="0.0"/>
                <iidm:minMaxReactiveLimits minQ="-150" maxQ="450"/>
            </iidm:generator>
        </iidm:voltageLevel>
        <iidm:voltageLevel id="_044f8f2a-c766-11e1-8775-005056c00008" name="NIN220KV" nominalV="220" topologyKind="BUS_BREAKER">
            <iidm:busBreakerTopology>
                <iidm:bus id="_0455a9a6-c766-11e1-8775-005056c00008" name="TannrsCk2" v="223.30016153524329" angle="-58.471629369224388"/>
            </iidm:busBreakerTopology>
            <iidm:generator id="_0483224a-c766-11e1-8775-005056c00008" name="TannrsCk SM" energySource="THERMAL" minP="100" maxP="400" ratedS="500" voltageRegulatorOn="true" targetP="314" targetV="223.30000000000001" targetQ="0" bus="_0455a9a6-c766-11e1-8775-005056c00008" connectableBus="_0455a9a6-c766-11e1-8775-005056c00008" p="-345.70492074680948" q="-293.10025965712379">
                <iidm:property name="CGMES.GeneratingUnit" value="_05df66ba-3f64-40cb-8b18-c66d26c4e2c1"/>
                <iidm:property name="CGMES.RegulatingControl" value="_c1d29442-5f57-41d1-bb60-4b74b4994c20"/>
                <iidm:property name="CGMES.normalPF" value="0.0"/>
                <iidm:minMaxReactiveLimits minQ="-150" maxQ="450"/>
            </iidm:generator>
        </iidm:voltageLevel>
        <iidm:twoWindingsTransformer id="_045b7604-c766-11e1-8775-005056c00008" name="26-25" r="0" x="6.6559680000000006" g="0" b="0" ratedU1="220" ratedU2="132" bus1="_0455a9a6-c766-11e1-8775-005056c00008" connectableBus1="_0455a9a6-c766-11e1-8775-005056c00008" voltageLevelId1="_044f8f2a-c766-11e1-8775-005056c00008" bus2="_04689567-c766-11e1-8775-005056c00008" connectableBus2="_04689567-c766-11e1-8775-005056c00008" voltageLevelId2="_04728079-c766-11e1-8775-005056c00008" p1="-3.2316649223260079" q1="20.183712132423288" p2="3.2316649223261398" q2="-20.040931780275859">
            <iidm:ratioTapChanger lowTapPosition="1" tapPosition="1" loadTapChangingCapabilities="false">
                <iidm:step r="0" x="0" g="0" b="0" rho="1.0416666883680561"/>
                <iidm:step r="0" x="0" g="0" b="0" rho="1"/>
                <iidm:step r="0" x="0" g="0" b="0" rho="0.96153844304733771"/>
                <iidm:step r="0" x="0" g="0" b="0" rho="0.92592589163237438"/>
                <iidm:step r="0" x="0" g="0" b="0" rho="0.8928570950255128"/>
            </iidm:ratioTapChanger>
            <iidm:currentLimits1 permanentLimit="1312">
                <iidm:temporaryLimit name="_ac81f7ca-04be-4b10-838b-fd5171e1b0f7" acceptableDuration="900" value="1508"/>
                <iidm:temporaryLimit name="_2a113652-9eee-4aa3-8fc5-b6ebccfafda5" acceptableDuration="60" value="1837"/>
            </iidm:currentLimits1>
            <iidm:currentLimits2 permanentLimit="2186">
                <iidm:temporaryLimit name="_f357d7c9-5bbd-4c6b-960a-7384577353db" acceptableDuration="900" value="2514"/>
                <iidm:temporaryLimit name="_42b6b196-1272-48c6-a627-914c00e3fe3e" acceptableDuration="60" value="3061"/>
            </iidm:currentLimits2>
        </iidm:twoWindingsTransformer>
    </iidm:substation>
    <iidm:substation id="_04553470-c766-11e1-8775-005056c00008" name="Haysend" country="GB" geographicalTags="_0472a781-c766-11e1-8775-005056c00008">
        <iidm:voltageLevel id="_0471bd23-c766-11e1-8775-005056c00008" name="HAY132KV" nominalV="132" topologyKind="BUS_BREAKER">
            <iidm:busBreakerTopology>
                <iidm:bus id="_044a8615-c766-11e1-8775-005056c00008" name="Sporn1" v="136.62000002647142" angle="-0.018523603262438851"/>
            </iidm:busBreakerTopology>
            <iidm:generator id="_048aea70-c766-11e1-8775-005056c00008" name="Sporn SM" energySource="THERMAL" minP="400" maxP="800" ratedS="1000" voltageRegulatorOn="true" targetP="513.43743900000004" targetV="136.62" targetQ="-62.132553100000003" bus="_044a8615-c766-11e1-8775-005056c00008" connectableBus="_044a8615-c766-11e1-8775-005056c00008" p="-576.847280493619" q="-97.648286329435635">
                <iidm:property name="CGMES.GeneratingUnit" value="_27799004-aa1e-4889-ba95-ee6fdae64895"/>
                <iidm:property name="CGMES.RegulatingControl" value="_827a9c80-183d-4e33-9e73-ef0aab3dfb13"/>
                <iidm:property name="CGMES.normalPF" value="1.0"/>
                <iidm:minMaxReactiveLimits minQ="-300" maxQ="850"/>
            </iidm:generator>
        </iidm:voltageLevel>
        <iidm:voltageLevel id="_0449e9d2-c766-11e1-8775-005056c00008" name="HAY220KV" nominalV="220" topologyKind="BUS_BREAKER">
            <iidm:busBreakerTopology>
                <iidm:bus id="_044aad28-c766-11e1-8775-005056c00008" name="Sporn2" v="219.59935665110109" angle="-0.58357859157969871"/>
            </iidm:busBreakerTopology>
            <iidm:danglingLine id="_0482fb33-c766-11e1-8775-005056c00008" name="68-116" p0="184" q0="0" r="0.16456000000000001" x="1.9601999999999999" g="0" b="0.00033884300000000002" ucteXnodeCode="XWE_BR21" bus="_044aad28-c766-11e1-8775-005056c00008" connectableBus="_044aad28-c766-11e1-8775-005056c00008" p="184.11568261075283" q="-14.962339386187567">
                <iidm:currentLimits permanentLimit="1000">
                    <iidm:temporaryLimit name="_7c27ab8a-8043-4a55-851d-72adb14d9f4d" acceptableDuration="900" value="1150"/>
                    <iidm:temporaryLimit name="_f4458b8d-a0e1-4adc-977f-14a07b3c44e9" acceptableDuration="60" value="1400"/>
                </iidm:currentLimits>
            </iidm:danglingLine>
        </iidm:voltageLevel>
        <iidm:twoWindingsTransformer id="_044f6815-c766-11e1-8775-005056c00008" name="68-69" r="0" x="6.4468800000000002" g="0" b="0" ratedU1="220" ratedU2="132" bus1="_044aad28-c766-11e1-8775-005056c00008" connectableBus1="_044aad28-c766-11e1-8775-005056c00008" voltageLevelId1="_0449e9d2-c766-11e1-8775-005056c00008" bus2="_044a8615-c766-11e1-8775-005056c00008" connectableBus2="_044a8615-c766-11e1-8775-005056c00008" voltageLevelId2="_0471bd23-c766-11e1-8775-005056c00008" p1="-29.450755378381288" q1="94.123238104096757" p2="29.450755378381288" q2="-90.965572377205163">
            <iidm:ratioTapChanger lowTapPosition="1" tapPosition="1" loadTapChangingCapabilities="false">
                <iidm:step r="0" x="0" g="0" b="0" rho="1.0695187165775399"/>
                <iidm:step r="0" x="0" g="0" b="0" rho="1"/>
                <iidm:step r="0" x="0" g="0" b="0" rho="0.93896713615023475"/>
                <iidm:step r="0" x="0" g="0" b="0" rho="0.88495575221238942"/>
                <iidm:step r="0" x="0" g="0" b="0" rho="0.83682008368200833"/>
                <iidm:step r="0" x="0" g="0" b="0" rho="0.79365079365079361"/>
                <iidm:step r="0" x="0" g="0" b="0" rho="0.75471698113207553"/>
            </iidm:ratioTapChanger>
            <iidm:currentLimits1 permanentLimit="1312">
                <iidm:temporaryLimit name="_836577b9-5365-40b9-8bb1-0c635896faab" acceptableDuration="900" value="1508"/>
                <iidm:temporaryLimit name="_4ff8ded8-043c-467c-9730-a5f583b4631d" acceptableDuration="60" value="1837"/>
            </iidm:currentLimits1>
            <iidm:currentLimits2 permanentLimit="2186">
                <iidm:temporaryLimit name="_10213be6-3bb3-4f54-9d8e-67a412744ad4" acceptableDuration="900" value="2514"/>
                <iidm:temporaryLimit name="_5e63ebf0-b379-4249-91a8-f8f8c88302e7" acceptableDuration="60" value="3061"/>
            </iidm:currentLimits2>
        </iidm:twoWindingsTransformer>
    </iidm:substation>
    <iidm:substation id="_046fe861-c766-11e1-8775-005056c00008" name="Bree" country="GB" geographicalTags="_0472a781-c766-11e1-8775-005056c00008">
        <iidm:voltageLevel id="_046bf0c5-c766-11e1-8775-005056c00008" name="BRE132KV" nominalV="132" topologyKind="BUS_BREAKER">
            <iidm:busBreakerTopology>
                <iidm:bus id="_044b9787-c766-11e1-8775-005056c00008" name="Natrium" v="131.72515853602761" angle="-5.1647530413251497"/>
            </iidm:busBreakerTopology>
            <iidm:load id="_04547126-c766-11e1-8775-005056c00008" name="Natrium LD" loadType="UNDEFINED" p0="77" q0="14" bus="_044b9787-c766-11e1-8775-005056c00008" connectableBus="_044b9787-c766-11e1-8775-005056c00008" p="77.003179275354256" q="14.000963430033558"/>
        </iidm:voltageLevel>
    </iidm:substation>
    <iidm:substation id="_047fedfa-c766-11e1-8775-005056c00008" name="Mithlond" country="GB" geographicalTags="_0472a781-c766-11e1-8775-005056c00008">
        <iidm:voltageLevel id="_0485e169-c766-11e1-8775-005056c00008" name="MIT132KV" nominalV="132" topologyKind="BUS_BREAKER">
            <iidm:busBreakerTopology>
                <iidm:bus id="_0480d858-c766-11e1-8775-005056c00008" name="Sterling" v="88.798347665063943" angle="-79.374426241915373"/>
            </iidm:busBreakerTopology>
            <iidm:load id="_045d4ac9-c766-11e1-8775-005056c00008" name="Sterling LD" loadType="UNDEFINED" p0="31" q0="17" bus="_0480d858-c766-11e1-8775-005056c00008" connectableBus="_0480d858-c766-11e1-8775-005056c00008" p="21.82628065875361" q="9.4728135785496779"/>
        </iidm:voltageLevel>
    </iidm:substation>
    <iidm:substation id="_0460f447-c766-11e1-8775-005056c00008" name="Pincup" country="GB" geographicalTags="_0472a781-c766-11e1-8775-005056c00008">
        <iidm:voltageLevel id="_045ed163-c766-11e1-8775-005056c00008" name="PIN132KV" nominalV="132" topologyKind="BUS_BREAKER">
            <iidm:busBreakerTopology>
                <iidm:bus id="_045c8773-c766-11e1-8775-005056c00008" name="Switchbk" v="130.22589364298267" angle="4.5755641098754749"/>
            </iidm:busBreakerTopology>
            <iidm:load id="_0466246a-c766-11e1-8775-005056c00008" name="Switchbk LD" loadType="UNDEFINED" p0="30" q0="16" bus="_045c8773-c766-11e1-8775-005056c00008" connectableBus="_045c8773-c766-11e1-8775-005056c00008" p="29.976725595538078" q="15.979316991042344"/>
        </iidm:voltageLevel>
    </iidm:substation>
    <iidm:substation id="_0471e439-c766-11e1-8775-005056c00008" name="Casterly Rock" country="GB" geographicalTags="_0472a781-c766-11e1-8775-005056c00008">
        <iidm:voltageLevel id="_04773b62-c766-11e1-8775-005056c00008" name="CAS132KV" nominalV="132" topologyKind="BUS_BREAKER">
            <iidm:busBreakerTopology>
                <iidm:bus id="_044b7076-c766-11e1-8775-005056c00008" name="Bradley" v="135.07834917916068" angle="1.8051862291160665"/>
            </iidm:busBreakerTopology>
            <iidm:load id="_046adf5a-c766-11e1-8775-005056c00008" name="Bradley LD" loadType="UNDEFINED" p0="34" q0="8" bus="_044b7076-c766-11e1-8775-005056c00008" connectableBus="_044b7076-c766-11e1-8775-005056c00008" p="33.999302398565007" q="7.9997264326808137"/>
        </iidm:voltageLevel>
    </iidm:substation>
    <iidm:substation id="_047cb9a6-c766-11e1-8775-005056c00008" name="Lannisport" country="GB" geographicalTags="_0472a781-c766-11e1-8775-005056c00008">
        <iidm:voltageLevel id="_04819ba0-c766-11e1-8775-005056c00008" name="LAN132KV" nominalV="132" topologyKind="BUS_BREAKER">
            <iidm:busBreakerTopology>
                <iidm:bus id="_046c8d0b-c766-11e1-8775-005056c00008" name="Mullin" v="108.95990690495748" angle="-76.94707732702183"/>
            </iidm:busBreakerTopology>
            <iidm:load id="_047a48a2-c766-11e1-8775-005056c00008" name="Mullin LD" loadType="UNDEFINED" p0="17" q0="7" bus="_046c8d0b-c766-11e1-8775-005056c00008" connectableBus="_046c8d0b-c766-11e1-8775-005056c00008" p="16.157555580826937" q="6.4314554935712058"/>
        </iidm:voltageLevel>
    </iidm:substation>
    <iidm:substation id="_0449c2c6-c766-11e1-8775-005056c00008" name="Armenelos" country="GB" geographicalTags="_0472a781-c766-11e1-8775-005056c00008">
        <iidm:voltageLevel id="_04765109-c766-11e1-8775-005056c00008" name="ARM132KV" nominalV="132" topologyKind="BUS_BREAKER">
            <iidm:busBreakerTopology>
                <iidm:bus id="_0468bc75-c766-11e1-8775-005056c00008" name="Glen Lyn" v="134.24398800517878" angle="4.4818342243246905"/>
            </iidm:busBreakerTopology>
            <iidm:generator id="_044cd00a-c766-11e1-8775-005056c00008" name="Glen Lyn SM" energySource="THERMAL" minP="200" maxP="400" ratedS="500" voltageRegulatorOn="true" targetP="252" targetV="134.243988" targetQ="0" bus="_0468bc75-c766-11e1-8775-005056c00008" connectableBus="_0468bc75-c766-11e1-8775-005056c00008" p="-283.70492074680948" q="-83.357141477545767">
                <iidm:property name="CGMES.GeneratingUnit" value="_e54b499b-436c-4b89-9803-b1d75e2fa364"/>
                <iidm:property name="CGMES.RegulatingControl" value="_32c8ab65-80f7-4c17-b3f5-ff075cce0ba5"/>
                <iidm:property name="CGMES.normalPF" value="0.0"/>
                <iidm:minMaxReactiveLimits minQ="-150" maxQ="450"/>
            </iidm:generator>
            <iidm:load id="_04566cf5-c766-11e1-8775-005056c00008" name="Glen Lyn LD" loadType="UNDEFINED" p0="37" q0="18" bus="_0468bc75-c766-11e1-8775-005056c00008" connectableBus="_0468bc75-c766-11e1-8775-005056c00008" p="37.000000002141029" q="18.000000001735973"/>
        </iidm:voltageLevel>
    </iidm:substation>
    <iidm:substation id="_0474f171-c766-11e1-8775-005056c00008" name="Erebor" country="GB" geographicalTags="_0472a781-c766-11e1-8775-005056c00008">
        <iidm:voltageLevel id="_044f6818-c766-11e1-8775-005056c00008" name="ERB132KV" nominalV="132" topologyKind="BUS_BREAKER">
            <iidm:busBreakerTopology>
                <iidm:bus id="_046b066a-c766-11e1-8775-005056c00008" name="Kankakee" v="101.78131722944333" angle="-96.126595850561287"/>
            </iidm:busBreakerTopology>
            <iidm:load id="_044ea4c0-c766-11e1-8775-005056c00008" name="Kankakee LD" loadType="UNDEFINED" p0="52" q0="22" bus="_046b066a-c766-11e1-8775-005056c00008" connectableBus="_046b066a-c766-11e1-8775-005056c00008" p="44.927904081193141" q="17.242915753174664"/>
        </iidm:voltageLevel>
    </iidm:substation>
    <iidm:substation id="_045fe2d2-c766-11e1-8775-005056c00008" name="Ollivanders" country="GB" geographicalTags="_0472a781-c766-11e1-8775-005056c00008">
        <iidm:voltageLevel id="_0465611a-c766-11e1-8775-005056c00008" name="OLL132KV" nominalV="132" topologyKind="BUS_BREAKER">
            <iidm:busBreakerTopology>
                <iidm:bus id="_04876809-c766-11e1-8775-005056c00008" name="Roanoke" v="127.42070622521933" angle="-2.6660916513116413"/>
            </iidm:busBreakerTopology>
            <iidm:load id="_0484cffb-c766-11e1-8775-005056c00008" name="Roanoke LD" loadType="UNDEFINED" p0="31" q0="26" bus="_04876809-c766-11e1-8775-005056c00008" connectableBus="_04876809-c766-11e1-8775-005056c00008" p="31.00029128340282" q="26.000407171623319"/>
            <iidm:shunt id="_0489d903-c766-11e1-8775-005056c00008" name="Roanoke SC" sectionCount="5" voltageRegulatorOn="true" targetV="127.423" targetDeadband="1" bus="_04876809-c766-11e1-8775-005056c00008" connectableBus="_04876809-c766-11e1-8775-005056c00008" q="-18.638969758423833">
                <iidm:property name="CGMES.RegulatingControl" value="_5be38d1a-9d01-42d8-b8bb-e9a26cfbcf1a"/>
                <iidm:shuntLinearModel bPerSection="0.0002296" maximumSectionCount="10"/>
            </iidm:shunt>
        </iidm:voltageLevel>
    </iidm:substation>
    <iidm:substation id="_046cdb28-c766-11e1-8775-005056c00008" name="Pelargir" country="GB" geographicalTags="_0472a781-c766-11e1-8775-005056c00008">
        <iidm:voltageLevel id="_048719e8-c766-11e1-8775-005056c00008" name="PEL132KV" nominalV="132" topologyKind="BUS_BREAKER">
            <iidm:busBreakerTopology>
                <iidm:bus id="_04577e63-c766-11e1-8775-005056c00008" name="Howard" v="88.186553219242271" angle="-46.09577716199545"/>
            </iidm:busBreakerTopology>
            <iidm:load id="_047a219a-c766-11e1-8775-005056c00008" name="Howard LD" loadType="UNDEFINED" p0="37" q0="23" bus="_04577e63-c766-11e1-8775-005056c00008" connectableBus="_04577e63-c766-11e1-8775-005056c00008" p="25.781963630070887" q="12.596550002041662"/>
            <iidm:load id="_04488a49-c766-11e1-8775-005056c00008" name="Howard NegG LD" loadType="UNDEFINED" p0="59" q0="0" bus="_04577e63-c766-11e1-8775-005056c00008" connectableBus="_04577e63-c766-11e1-8775-005056c00008" p="41.111779842545467" q="0"/>
        </iidm:voltageLevel>
    </iidm:substation>
    <iidm:substation id="_044e56a1-c766-11e1-8775-005056c00008" name="Crickhollow" country="GB" geographicalTags="_0472a781-c766-11e1-8775-005056c00008">
        <iidm:voltageLevel id="_048a272b-c766-11e1-8775-005056c00008" name="CRI220KV" nominalV="220" topologyKind="BUS_BREAKER">
            <iidm:busBreakerTopology>
                <iidm:bus id="_0453d4e3-c766-11e1-8775-005056c00008" name="Kanawha" v="218.66872287230206" angle="0.46873360841946832"/>
            </iidm:busBreakerTopology>
        </iidm:voltageLevel>
        <iidm:voltageLevel id="_046efe09-c766-11e1-8775-005056c00008" name="CRI132KV" nominalV="132" topologyKind="BUS_BREAKER">
            <iidm:busBreakerTopology>
                <iidm:bus id="_04898ae9-c766-11e1-8775-005056c00008" name="CabinCrk" v="137.28000001115868" angle="2.1527830503608021"/>
            </iidm:busBreakerTopology>
...